plots/csv/rotor_angle_dev_bus29_julia.csv
t_s,rotor_angle_dev_rad,bus_voltage_angle_dev_rad,angle_source,angle_is_exact_bus_voltage
0.0,0.0,0.0,Vmag_get_voltage_magnitude_series__angle_get_voltage_angle_series,true
0.01,1.0325074129013957e-15,1.0325074129013957e-15,Vmag_get_voltage_magnitude_series__angle_get_voltage_angle_series,true
0.02,-1.1102230246247274e-17,-1.1102230246247274e-17,Vmag_get_voltage_magnitude_series__angle_get_voltage_angle_series,true
0.03,4.607425552194321e-16,4.607425552194321e-16,Vmag_get_voltage_magnitude_series__angle_get_voltage_angle_series,true
0.04,-3.5527136788005534e-16,-3.5527136788005534e-16,Vmag_get_voltage_magnitude_series__angle_get_voltage_angle_series,true
0.05,-5.273559366969748e-16,-5.273559366969748e-16,Vmag_get_voltage_magnitude_series__angle_get_voltage_angle_series,true
0.06,2.220446049246987e-17,2.220446049246987e-17,Vmag_get_voltage_magnitude_series__angle_get_voltage_angle_series,true
0.07,-3.885780586188048e-16,-3.885780586188048e-16,Vmag_get_voltage_magnitude_series__angle_get_voltage_angle_series,true
0.08,4.052314039881514e-16,4.052314039881514e-16,Vmag_get_voltage_magnitude_series__angle_get_voltage_angle_series,true
0.09,-6.328271240363251e-16,-6.328271240363251e-16,Vmag_get_voltage_magnitude_series__angle_get_voltage_angle_series,true
0.1,-1.1102230246251565e-16,-1.1102230246251565e-16,Vmag_get_voltage_magnitude_series__angle_get_voltage_angle_series,true
0.11,-0.0005794301398116587,-0.0005794301398116587,Vmag_get_voltage_magnitude_series__angle_get_voltage_angle_series,true
0.12,-0.0003411561071602001,-0.0003411561071602001,Vmag_get_voltage_magnitude_series__angle_get_voltage_angle_series,true
0.13,-0.00016186117355831972,-0.00016186117355831972,Vmag_get_voltage_magnitude_series__angle_get_voltage_angle_series,true
0.14,-0.00013067316345568753,-0.00013067316345568753,Vmag_get_voltage_magnitude_series__angle_get_voltage_angle_series,true
0.15,-0.00013884778270560375,-0.00013884778270560375,Vmag_get_voltage_magnitude_series__angle_get_voltage_angle_series,true
0.16,-0.0001535360483664101,-0.0001535360483664101,Vmag_get_voltage_magnitude_series__angle_get_voltage_angle_series,true
0.17,-0.00017133001290179788,-0.00017133001290179788,Vmag_get_voltage_magnitude_series__angle_get_voltage_angle_series,true
0.18,-0.00018855250743920514,-0.00018855250743920514,Vmag_get_voltage_magnitude_series__angle_get_voltage_angle_series,true
0.19,-0.00020521999225491062,-0.00020521999225491062,Vmag_get_voltage_magnitude_series__angle_get_voltage_angle_series,true
0.2,-0.00022374374044759754,-0.00022374374044759754,Vmag_get_voltage_magnitude_series__angle_get_voltage_angle_series,true
0.21,-0.000247351378352843,-0.000247351378352843,Vmag_get_voltage_magnitude_series__angle_get_voltage_angle_series,true
0.22,-0.0002789118965760118,-0.0002789118965760118,Vmag_get_voltage_magnitude_series__angle_get_voltage_angle_series,true
0.23,-0.0003207208056338163,-0.0003207208056338163,Vmag_get_voltage_magnitude_series__angle_get_voltage_angle_series,true
0.24,-0.0003745492929580302,-0.0003745492929580302,Vmag_get_voltage_magnitude_series__angle_get_voltage_angle_series,true
0.25,-0.0004416614807698573,-0.0004416614807698573,Vmag_get_voltage_magnitude_series__angle_get_voltage_angle_series,true
0.26,-0.000522878160046137,-0.000522878160046137,Vmag_get_voltage_magnitude_series__angle_get_voltage_angle_series,true
0.27,-0.0006186441648351661,-0.0006186441648351661,Vmag_get_voltage_magnitude_series__angle_get_voltage_angle_series,true
0.28,-0.0007290968041291654,-0.0007290968041291654,Vmag_get_voltage_magnitude_series__angle_get_voltage_angle_series,true
0.29,-0.000854131188100341,-0.000854131188100341,Vmag_get_voltage_magnitude_series__angle_get_voltage_angle_series,true
0.3,-0.0009934568697304862,-0.0009934568697304862,Vmag_get_voltage_magnitude_series__angle_get_voltage_angle_series,true
0.31,-0.0011466464378915766,-0.0011466464378915766,Vmag_get_voltage_magnitude_series__angle_get_voltage_angle_series,true
0.32,-0.0013131753775300892,-0.0013131753775300892,Vmag_get_voltage_magnitude_series__angle_get_voltage_angle_series,true
0.33,-0.0014924534074719584,-0.0014924534074719584,Vmag_get_voltage_magnitude_series__angle_get_voltage_angle_series,true
0.34,-0.001683848447948403,-0.001683848447948403,Vmag_get_voltage_magnitude_series__angle_get_voltage_angle_series,true
0.35,-0.0018867042395922776,-0.0018867042395922776,Vmag_get_voltage_magnitude_series__angle_get_voltage_angle_series,true
0.36,-0.002100352822550585,-0.002100352822550585,Vmag_get_voltage_magnitude_series__angle_get_voltage_angle_series,true
0.37,-0.002324123201579216,-0.002324123201579216,Vmag_get_voltage_magnitude_series__angle_get_voltage_angle_series,true
0.38,-0.002557346961980393,-0.002557346961980393,Vmag_get_voltage_magnitude_series__angle_get_voltage_angle_series,true
0.39,-0.0027993619112020034,-0.0027993619112020034,Vmag_get_voltage_magnitude_series__angle_get_voltage_angle_series,true
0.4,-0.003049514384643219,-0.003049514384643219,Vmag_get_voltage_magnitude_series__angle_get_voltage_angle_series,true
0.41,-0.0033071604110023523,-0.0033071604110023523,Vmag_get_voltage_magnitude_series__angle_get_voltage_angle_series,true
0.42,-0.0035716666378241405,-0.0035716666378241405,Vmag_get_voltage_magnitude_series__angle_get_voltage_angle_series,true
0.43,-0.003842410630200752,-0.003842410630200752,Vmag_get_voltage_magnitude_series__angle_get_voltage_angle_series,true
0.44,-0.004118781111898438,-0.004118781111898438,Vmag_get_voltage_magnitude_series__angle_get_voltage_angle_series,true
0.45,-0.004400178096293236,-0.004400178096293236,Vmag_get_voltage_magnitude_series__angle_get_voltage_angle_series,true
0.46,-0.004686012866516852,-0.004686012866516852,Vmag_get_voltage_magnitude_series__angle_get_voltage_angle_series,true
0.47,-0.004975708069111631,-0.004975708069111631,Vmag_get_voltage_magnitude_series__angle_get_voltage_angle_series,true
0.48,-0.0052686976837178386,-0.0052686976837178386,Vmag_get_voltage_magnitude_series__angle_get_voltage_angle_series,true
0.49,-0.005564427105432117,-0.005564427105432117,Vmag_get_voltage_magnitude_series__angle_get_voltage_angle_series,true
0.5,-0.005862353232658511,-0.005862353232658511,Vmag_get_voltage_magnitude_series__angle_get_voltage_angle_series,true
0.51,-0.006161944620985433,-0.006161944620985433,Vmag_get_voltage_magnitude_series__angle_get_voltage_angle_series,true
0.52,-0.0064626817416014466,-0.0064626817416014466,Vmag_get_voltage_magnitude_series__angle_get_voltage_angle_series,true
0.53,-0.006764057249523371,-0.006764057249523371,Vmag_get_voltage_magnitude_series__angle_get_voltage_angle_series,true
0.54,-0.007065576420478151,-0.007065576420478151,Vmag_get_voltage_magnitude_series__angle_get_voltage_angle_series,true
0.55,-0.007366757606607507,-0.007366757606607507,Vmag_get_voltage_magnitude_series__angle_get_voltage_angle_series,true
0.56,-0.0076671327679265775,-0.0076671327679265775,Vmag_get_voltage_magnitude_series__angle_get_voltage_angle_series,true
0.57,-0.007966248106582422,-0.007966248106582422,Vmag_get_voltage_magnitude_series__angle_get_voltage_angle_series,true
0.58,-0.00826366467730175,-0.00826366467730175,Vmag_get_voltage_magnitude_series__angle_get_voltage_angle_series,true
0.59,-0.008558959094907758,-0.008558959094907758,Vmag_get_voltage_magnitude_series__angle_get_voltage_angle_series,true
0.6,-0.008851724212506386,-0.008851724212506386,Vmag_get_voltage_magnitude_series__angle_get_voltage_angle_series,true
0.61,-0.00914156982073382,-0.00914156982073382,Vmag_get_voltage_magnitude_series__angle_get_voltage_angle_series,true
0.62,-0.009428123334276228,-0.009428123334276228,Vmag_get_voltage_magnitude_series__angle_get_voltage_angle_series,true
0.63,-0.009711030453061938,-0.009711030453061938,Vmag_get_voltage_magnitude_series__angle_get_voltage_angle_series,true
0.64,-0.009989955807176466,-0.009989955807176466,Vmag_get_voltage_magnitude_series__angle_get_voltage_angle_series,true
0.65,-0.010264583534916204,-0.010264583534916204,Vmag_get_voltage_magnitude_series__angle_get_voltage_angle_series,true
0.66,-0.010534617859378637,-0.010534617859378637,Vmag_get_voltage_magnitude_series__angle_get_voltage_angle_series,true
0.67,-0.010799783567507965,-0.010799783567507965,Vmag_get_voltage_magnitude_series__angle_get_voltage_angle_series,true
0.68,-0.011059826476079618,-0.011059826476079618,Vmag_get_voltage_magnitude_series__angle_get_voltage_angle_series,true
0.69,-0.01131451381010631,-0.01131451381010631,Vmag_get_voltage_magnitude_series__angle_get_voltage_angle_series,true
0.7,-0.011563634517161426,-0.011563634517161426,Vmag_get_voltage_magnitude_series__angle_get_voltage_angle_series,true
0.71,-0.011806999526072368,-0.011806999526072368,Vmag_get_voltage_magnitude_series__angle_get_voltage_angle_series,true
0.72,-0.01204444190829287,-0.01204444190829287,Vmag_get_voltage_magnitude_series__angle_get_voltage_angle_series,true
0.73,-0.0122758169791861,-0.0122758169791861,Vmag_get_voltage_magnitude_series__angle_get_voltage_angle_series,true
0.74,-0.012501002306051296,-0.012501002306051296,Vmag_get_voltage_magnitude_series__angle_get_voltage_angle_series,true
0.75,-0.012719897609700725,-0.012719897609700725,Vmag_get_voltage_magnitude_series__angle_get_voltage_angle_series,true
0.76,-0.012932424617270859,-0.012932424617270859,Vmag_get_voltage_magnitude_series__angle_get_voltage_angle_series,true
0.77,-0.013138526785363012,-0.013138526785363012,Vmag_get_voltage_magnitude_series__angle_get_voltage_angle_series,true
0.78,-0.013338168939955429,-0.013338168939955429,Vmag_get_voltage_magnitude_series__angle_get_voltage_angle_series,true
0.79,-0.0135313368397932,-0.0135313368397932,Vmag_get_voltage_magnitude_series__angle_get_voltage_angle_series,true
0.8,-0.013718036622191152,-0.013718036622191152,Vmag_get_voltage_magnitude_series__angle_get_voltage_angle_series,true
0.81,-0.013898294189711793,-0.013898294189711793,Vmag_get_voltage_magnitude_series__angle_get_voltage_angle_series,true
0.82,-0.014072154491634192,-0.014072154491634192,Vmag_get_voltage_magnitude_series__angle_get_voltage_angle_series,true
0.83,-0.014239680727185084,-0.014239680727185084,Vmag_get_voltage_magnitude_series__angle_get_voltage_angle_series,true
0.84,-0.014400953498092133,-0.014400953498092133,Vmag_get_voltage_magnitude_series__angle_get_voltage_angle_series,true
0.85,-0.014556069864538924,-0.014556069864538924,Vmag_get_voltage_magnitude_series__angle_get_voltage_angle_series,true
0.86,-0.014705142359872653,-0.014705142359872653,Vmag_get_voltage_magnitude_series__angle_get_voltage_angle_series,true
0.87,-0.014848297948182005,-0.014848297948182005,Vmag_get_voltage_magnitude_series__angle_get_voltage_angle_series,true
0.88,-0.014985676938323617,-0.014985676938323617,Vmag_get_voltage_magnitude_series__angle_get_voltage_angle_series,true
0.89,-0.015117431861520918,-0.015117431861520918,Vmag_get_voltage_magnitude_series__angle_get_voltage_angle_series,true
0.9,-0.015243726320364297,-0.015243726320364297,Vmag_get_voltage_magnitude_series__angle_get_voltage_angle_series,true
0.91,-0.015364733823098685,-0.015364733823098685,Vmag_get_voltage_magnitude_series__angle_get_voltage_angle_series,true
0.92,-0.0154806366008095,-0.0154806366008095,Vmag_get_voltage_magnitude_series__angle_get_voltage_angle_series,true
0.93,-0.015591624426604209,-0.015591624426604209,Vmag_get_voltage_magnitude_series__angle_get_voltage_angle_series,true
0.94,-0.01569789343489191,-0.01569789343489191,Vmag_get_voltage_magnitude_series__angle_get_voltage_angle_series,true
0.95,-0.015799644957480832,-0.015799644957480832,Vmag_get_voltage_magnitude_series__angle_get_voltage_angle_series,true
0.96,-0.015897084377678637,-0.015897084377678637,Vmag_get_voltage_magnitude_series__angle_get_voltage_angle_series,true
0.97,-0.01599042000276874,-0.01599042000276874,Vmag_get_voltage_magnitude_series__angle_get_voltage_angle_series,true
0.98,-0.016079861980576506,-0.016079861980576506,Vmag_get_voltage_magnitude_series__angle_get_voltage_angle_series,true
0.99,-0.016165621242512238,-0.016165621242512238,Vmag_get_voltage_magnitude_series__angle_get_voltage_angle_series,true
1.0,-0.016247908492416637,-0.016247908492416637,Vmag_get_voltage_magnitude_series__angle_get_voltage_angle_series,true
1.01,-0.016326933243642695,-0.016326933243642695,Vmag_get_voltage_magnitude_series__angle_get_voltage_angle_series,true
1.02,-0.016402902901157493,-0.016402902901157493,Vmag_get_voltage_magnitude_series__angle_get_voltage_angle_series,true
1.03,-0.016476021905396418,-0.016476021905396418,Vmag_get_voltage_magnitude_series__angle_get_voltage_angle_series,true
1.04,-0.016546490922047446,-0.016546490922047446,Vmag_get_voltage_magnitude_series__angle_get_voltage_angle_series,true
1.05,-0.01661450610101705,-0.01661450610101705,Vmag_get_voltage_magnitude_series__angle_get_voltage_angle_series,true
1.06,-0.016680258388378853,-0.016680258388378853,Vmag_get_voltage_magnitude_series__angle_get_voltage_angle_series,true
1.07,-0.016743932902014116,-0.016743932902014116,Vmag_get_voltage_magnitude_series__angle_get_voltage_angle_series,true
1.08,-0.01680570837361469,-0.01680570837361469,Vmag_get_voltage_magnitude_series__angle_get_voltage_angle_series,true
1.09,-0.016865756646707517,-0.016865756646707517,Vmag_get_voltage_magnitude_series__angle_get_voltage_angle_series,true
1.1,-0.01692424224544614,-0.01692424224544614,Vmag_get_voltage_magnitude_series__angle_get_voltage_angle_series,true
1.11,-0.016981321998130315,-0.016981321998130315,Vmag_get_voltage_magnitude_series__angle_get_voltage_angle_series,true
1.12,-0.01703714472563807,-0.01703714472563807,Vmag_get_voltage_magnitude_series__angle_get_voltage_angle_series,true
1.13,-0.01709185099711258,-0.01709185099711258,Vmag_get_voltage_magnitude_series__angle_get_voltage_angle_series,true
1.14,-0.017145572929232952,-0.017145572929232952,Vmag_get_voltage_magnitude_series__angle_get_voltage_angle_series,true
1.15,-0.017198434054818076,-0.017198434054818076,Vmag_get_voltage_magnitude_series__angle_get_voltage_angle_series,true
1.16,-0.01725054924759905,-0.01725054924759905,Vmag_get_voltage_magnitude_series__angle_get_voltage_angle_series,true
1.17,-0.017302024687621438,-0.017302024687621438,Vmag_get_voltage_magnitude_series__angle_get_voltage_angle_series,true
1.18,-0.017352957890096846,-0.017352957890096846,Vmag_get_voltage_magnitude_series__angle_get_voltage_angle_series,true
1.19,-0.01740343777298303,-0.01740343777298303,Vmag_get_voltage_magnitude_series__angle_get_voltage_angle_series,true
1.2,-0.017453544773618487,-0.017453544773618487,Vmag_get_voltage_magnitude_series__angle_get_voltage_angle_series,true
1.21,-0.017503351009389594,-0.017503351009389594,Vmag_get_voltage_magnitude_series__angle_get_voltage_angle_series,true
1.22,-0.01755292046606332,-0.01755292046606332,Vmag_get_voltage_magnitude_series__angle_get_voltage_angle_series,true
1.23,-0.017602309234928705,-0.017602309234928705,Vmag_get_voltage_magnitude_series__angle_get_voltage_angle_series,true
1.24,-0.017651565775577416,-0.017651565775577416,Vmag_get_voltage_magnitude_series__angle_get_voltage_angle_series,true
1.25,-0.017700731205520744,-0.017700731205520744,Vmag_get_voltage_magnitude_series__angle_get_voltage_angle_series,true
1.26,-0.017749839619686056,-0.017749839619686056,Vmag_get_voltage_magnitude_series__angle_get_voltage_angle_series,true
1.27,-0.017798918431133157,-0.017798918431133157,Vmag_get_voltage_magnitude_series__angle_get_voltage_angle_series,true
1.28,-0.017847988729959793,-0.017847988729959793,Vmag_get_voltage_magnitude_series__angle_get_voltage_angle_series,true
1.29,-0.017897065657597397,-0.017897065657597397,Vmag_get_voltage_magnitude_series__angle_get_voltage_angle_series,true
1.3,-0.01794615879592646,-0.01794615879592646,Vmag_get_voltage_magnitude_series__angle_get_voltage_angle_series,true
1.31,-0.017995272563629268,-0.017995272563629268,Vmag_get_voltage_magnitude_series__angle_get_voltage_angle_series,true
1.32,-0.01804440662183795,-0.01804440662183795,Vmag_get_voltage_magnitude_series__angle_get_voltage_angle_series,true
1.33,-0.0180935562815182,-0.0180935562815182,Vmag_get_voltage_magnitude_series__angle_get_voltage_angle_series,true
1.34,-0.01814271291147109,-0.01814271291147109,Vmag_get_voltage_magnitude_series__angle_get_voltage_angle_series,true
1.35,-0.018191864349038637,-0.018191864349038637,Vmag_get_voltage_magnitude_series__angle_get_voltage_angle_series,true
1.36,-0.018240995300663736,-0.018240995300663736,Vmag_get_voltage_magnitude_series__angle_get_voltage_angle_series,true
1.37,-0.01829008774225784,-0.01829008774225784,Vmag_get_voltage_magnitude_series__angle_get_voltage_angle_series,true
1.38,-0.018339121306417093,-0.018339121306417093,Vmag_get_voltage_magnitude_series__angle_get_voltage_angle_series,true
1.39,-0.018388073661764055,-0.018388073661764055,Vmag_get_voltage_magnitude_series__angle_get_voltage_angle_series,true
1.4,-0.01843692088078479,-0.01843692088078479,Vmag_get_voltage_magnitude_series__angle_get_voltage_angle_series,true
1.41,-0.018485637790610878,-0.018485637790610878,Vmag_get_voltage_magnitude_series__angle_get_voltage_angle_series,true
1.42,-0.018534198311922743,-0.018534198311922743,Vmag_get_voltage_magnitude_series__angle_get_voltage_angle_series,true
1.43,-0.018582575779481022,-0.018582575779481022,Vmag_get_voltage_magnitude_series__angle_get_voltage_angle_series,true
1.44,-0.018630743244689472,-0.018630743244689472,Vmag_get_voltage_magnitude_series__angle_get_voltage_angle_series,true
1.45,-0.018678673760888918,-0.018678673760888918,Vmag_get_voltage_magnitude_series__angle_get_voltage_angle_series,true
1.46,-0.018726340647145633,-0.018726340647145633,Vmag_get_voltage_magnitude_series__angle_get_voltage_angle_series,true
1.47,-0.018773717733818383,-0.018773717733818383,Vmag_get_voltage_magnitude_series__angle_get_voltage_angle_series,true
1.48,-0.018820779586905974,-0.018820779586905974,Vmag_get_voltage_magnitude_series__angle_get_voltage_angle_series,true
1.49,-0.01886750170993651,-0.01886750170993651,Vmag_get_voltage_magnitude_series__angle_get_voltage_angle_series,true
1.5,-0.01891386072807941,-0.01891386072807941,Vmag_get_voltage_magnitude_series__angle_get_voltage_angle_series,true
1.51,-0.018959834547566515,-0.018959834547566515,Vmag_get_voltage_magnitude_series__angle_get_voltage_angle_series,true
1.52,-0.019005402497261535,-0.019005402497261535,Vmag_get_voltage_magnitude_series__angle_get_voltage_angle_series,true
1.53,-0.019050545447593832,-0.019050545447593832,Vmag_get_voltage_magnitude_series__angle_get_voltage_angle_series,true
1.54,-0.019095245909842056,-0.019095245909842056,Vmag_get_voltage_magnitude_series__angle_get_voltage_angle_series,true
1.55,-0.019139488116643934,-0.019139488116643934,Vmag_get_voltage_magnitude_series__angle_get_voltage_angle_series,true
1.56,-0.019183258080772474,-0.019183258080772474,Vmag_get_voltage_magnitude_series__angle_get_voltage_angle_series,true
1.57,-0.01922654363834831,-0.01922654363834831,Vmag_get_voltage_magnitude_series__angle_get_voltage_angle_series,true
1.58,-0.019269334473179793,-0.019269334473179793,Vmag_get_voltage_magnitude_series__angle_get_voltage_angle_series,true
1.59,-0.019311622123244405,-0.019311622123244405,Vmag_get_voltage_magnitude_series__angle_get_voltage_angle_series,true
1.6,-0.019353399973348926,-0.019353399973348926,Vmag_get_voltage_magnitude_series__angle_get_voltage_angle_series,true
1.61,-0.019394663231471602,-0.019394663231471602,Vmag_get_voltage_magnitude_series__angle_get_voltage_angle_series,true
1.62,-0.019435408891827037,-0.019435408891827037,Vmag_get_voltage_magnitude_series__angle_get_voltage_angle_series,true
1.63,-0.019475635685060447,-0.019475635685060447,Vmag_get_voltage_magnitude_series__angle_get_voltage_angle_series,true
1.64,-0.019515344017002792,-0.019515344017002792,Vmag_get_voltage_magnitude_series__angle_get_voltage_angle_series,true
1.65,-0.019554535897227263,-0.019554535897227263,Vmag_get_voltage_magnitude_series__angle_get_voltage_angle_series,true
1.66,-0.01959321485694847,-0.01959321485694847,Vmag_get_voltage_magnitude_series__angle_get_voltage_angle_series,true
1.67,-0.019631385860856464,-0.019631385860856464,Vmag_get_voltage_magnitude_series__angle_get_voltage_angle_series,true
1.68,-0.019669055210298537,-0.019669055210298537,Vmag_get_voltage_magnitude_series__angle_get_voltage_angle_series,true
1.69,-0.019706230441413543,-0.019706230441413543,Vmag_get_voltage_magnitude_series__angle_get_voltage_angle_series,true
1.7,-0.019742920217838616,-0.019742920217838616,Vmag_get_voltage_magnitude_series__angle_get_voltage_angle_series,true
1.71,-0.019779134220713656,-0.019779134220713656,Vmag_get_voltage_magnitude_series__angle_get_voltage_angle_series,true
1.72,-0.019814883035725404,-0.019814883035725404,Vmag_get_voltage_magnitude_series__angle_get_voltage_angle_series,true
1.73,-0.019850178037427224,-0.019850178037427224,Vmag_get_voltage_magnitude_series__angle_get_voltage_angle_series,true
1.74,-0.019885031275328986,-0.019885031275328986,Vmag_get_voltage_magnitude_series__angle_get_voltage_angle_series,true
1.75,-0.019919455358314644,-0.019919455358314644,Vmag_get_voltage_magnitude_series__angle_get_voltage_angle_series,true
1.76,-0.019953463340846855,-0.019953463340846855,Vmag_get_voltage_magnitude_series__angle_get_voltage_angle_series,true
1.77,-0.01998706861200137,-0.01998706861200137,Vmag_get_voltage_magnitude_series__angle_get_voltage_angle_series,true
1.78,-0.02002028478600119,-0.02002028478600119,Vmag_get_voltage_magnitude_series__angle_get_voltage_angle_series,true
1.79,-0.020053125597467577,-0.020053125597467577,Vmag_get_voltage_magnitude_series__angle_get_voltage_angle_series,true
1.8,-0.020085604799974868,-0.020085604799974868,Vmag_get_voltage_magnitude_series__angle_get_voltage_angle_series,true
1.81,-0.020117736069647948,-0.020117736069647948,Vmag_get_voltage_magnitude_series__angle_get_voltage_angle_series,true
1.82,-0.020149532914303946,-0.020149532914303946,Vmag_get_voltage_magnitude_series__angle_get_voltage_angle_series,true
1.83,-0.02018100858740491,-0.02018100858740491,Vmag_get_voltage_magnitude_series__angle_get_voltage_angle_series,true
1.84,-0.020212176009074424,-0.020212176009074424,Vmag_get_voltage_magnitude_series__angle_get_voltage_angle_series,true
1.85,-0.020243047692547433,-0.020243047692547433,Vmag_get_voltage_magnitude_series__angle_get_voltage_angle_series,true
1.86,-0.020273635677927847,-0.020273635677927847,Vmag_get_voltage_magnitude_series__angle_get_voltage_angle_series,true
1.87,-0.02030395147229925,-0.02030395147229925,Vmag_get_voltage_magnitude_series__angle_get_voltage_angle_series,true
1.88,-0.02033400599656949,-0.02033400599656949,Vmag_get_voltage_magnitude_series__angle_get_voltage_angle_series,true
1.89,-0.020363809540247003,-0.020363809540247003,Vmag_get_voltage_magnitude_series__angle_get_voltage_angle_series,true
1.9,-0.020393371721684237,-0.020393371721684237,Vmag_get_voltage_magnitude_series__angle_get_voltage_angle_series,true
1.91,-0.020422701456411667,-0.020422701456411667,Vmag_get_voltage_magnitude_series__angle_get_voltage_angle_series,true
1.92,-0.02045180693221402,-0.02045180693221402,Vmag_get_voltage_magnitude_series__angle_get_voltage_angle_series,true
1.93,-0.02048069558998305,-0.02048069558998305,Vmag_get_voltage_magnitude_series__angle_get_voltage_angle_series,true
1.94,-0.020509374112266762,-0.020509374112266762,Vmag_get_voltage_magnitude_series__angle_get_voltage_angle_series,true
1.95,-0.020537848417123604,-0.020537848417123604,Vmag_get_voltage_magnitude_series__angle_get_voltage_angle_series,true
1.96,-0.02056612365861854,-0.02056612365861854,Vmag_get_voltage_magnitude_series__angle_get_voltage_angle_series,true
1.97,-0.02059420423312313,-0.02059420423312313,Vmag_get_voltage_magnitude_series__angle_get_voltage_angle_series,true
1.98,-0.02062209379002514,-0.02062209379002514,Vmag_get_voltage_magnitude_series__angle_get_voltage_angle_series,true
1.99,-0.02064979524893971,-0.02064979524893971,Vmag_get_voltage_magnitude_series__angle_get_voltage_angle_series,true
...
